# *********************
# External Forcing Data
# *********************
 &EXF_NML_01
 &

# *********************
 &EXF_NML_02
 uwindperiod = 0.0,
 uwindfile = 'windx.bin',
 &

# *********************
 &EXF_NML_03
 &

# *********************
 &EXF_NML_04
 &
