# Packages
 &PACKAGES
 useDiagnostics = .TRUE.,
 useICEBERG = .TRUE.,
 useEXF = .TRUE.,
 useSEAICE = .TRUE.,
 &
